15
adenine.pdb.xyz	      0.0000000
  C        0.00000        0.00000        0.00000
  C        1.39400        0.00000        0.00000
  C        2.08400        1.21100        0.00000
  N        1.33700        2.34200       -0.00200
  C       -0.01700        2.31300       -0.00300
  N       -0.71000        1.14900       -0.00100
  N       -0.39100       -1.29100        0.00600
  C        0.73100       -2.04900        0.01000
  N        1.84300       -1.27600        0.00700
  N        3.48500        1.25700        0.00400
  H       -0.56700        3.25400       -0.00400
  H       -1.34700       -1.63000        0.01000
  H        0.73800       -3.13900        0.01700
  H        3.79900        2.22000       -0.03700
  H        3.83900        0.81800        0.84700
