22
adrenochrome.pdb.xyz	      0.0000000
  C        0.00000        0.00000        0.00000
  C        1.40000        0.00000        0.00000
  C        2.05600        1.23500        0.00000
  C        1.35100        2.43600       -0.01100
  C       -0.04700        2.43700       -0.02700
  C       -0.71400        1.20600       -0.01300
  O       -0.59700       -1.04600       -0.00200
  O       -1.91800        1.18100       -0.02300
  N        2.24300        3.57100       -0.06500
  C        1.82500        4.64800        0.84600
  C        3.55300        3.01100        0.32100
  C        3.53800        1.50600       -0.05000
  H        4.08800        0.90600        0.67500
  O        4.02300        1.29500       -1.38100
  H        1.96200       -0.93400       -0.00600
  H       -0.60800        3.37000       -0.05900
  H        1.67400        4.25000        1.84900
  H        0.89500        5.08900        0.48900
  H        2.59600        5.41800        0.87300
  H        3.68300        3.10100        1.40000
  H        4.36400        3.53100       -0.19000
  H        4.96300        1.50100       -1.42300
