43
codeine.pdb.xyz	      0.0000000
  C        0.00000        0.00000        0.00000
  C        1.40000        0.00000        0.00000
  C        2.10700        1.21100        0.00000
  C        1.44500        2.44500       -0.03800
  C        0.04800        2.45700        0.01200
  C       -0.62900        1.24200        0.04700
  C       -2.07600        1.49700       -0.25600
  C       -2.71800        0.33500       -1.02300
  C       -2.36200       -0.95500       -0.25100
  C       -0.83000       -1.23400       -0.28100
  C       -1.86400        2.82700       -1.01500
  C       -2.78500        1.64200        1.09900
  C       -2.54900        0.33500        1.88800
  N       -2.94400       -0.84600        1.10000
  C       -2.81500       -2.08000        1.89200
  H       -3.80000        0.46400       -1.01100
  C       -2.28600        0.26800       -2.47000
  C       -2.00200        1.39200       -3.14200
  C       -1.35400        2.57200       -2.45300
  H       -2.77400        3.42800       -1.02200
  O       -0.78900        3.47400       -0.35200
  H       -1.51400        3.47200       -3.04700
  O        0.05100        2.30500       -2.40400
  O        2.14800        3.60600       -0.17000
  H        1.94200       -0.94400       -0.06400
  H        3.19600        1.19100       -0.04400
  H       -2.85600       -1.78900       -0.75000
  H       -0.57000       -1.58100       -1.28100
  H       -0.57500       -2.01800        0.42900
  H       -3.85200        1.80000        0.94500
  H       -2.36800        2.48400        1.65300
  H       -3.14300        0.37000        2.80100
  H       -1.49800        0.25200        2.16500
  H       -3.49500       -2.03400        2.74300
  H       -1.79600       -2.18900        2.26100
  H       -3.07500       -2.94300        1.27900
  H       -2.52600       -0.63000       -3.03900
  H       -1.93800        1.33800       -4.22900
  H        0.39600        2.18400       -3.29500
  C        2.06800        4.09000       -1.49300
  H        2.41300        3.32500       -2.18900
  H        1.03800        4.36000       -1.72800
  H        2.69900        4.97400       -1.59000
