72
cyclohexane.pdb.xyz	      0.0000000
  C        0.00000        0.00000        0.00000
  C        1.56500        0.00000        0.00000
  C        2.18500        1.43600        0.00000
  C        1.56500        2.40900        1.05800
  C        0.01100        2.33300        1.19900
  C       -0.63600        0.91400        1.10200
  C        2.23800       -0.92000        1.06200
  C        3.67600       -1.27900        0.63200
  C        1.54000       -2.28200        1.21800
  C        2.21700        2.30900        2.47100
  C        1.98700        3.60500        3.27800
  C        3.74500        2.12600        2.45500
  C       -0.72600        0.16600        2.47300
  C       -1.80600       -0.94200        2.41300
  C       -1.16200        1.04800        3.66200
  C       -0.81400        3.47200        0.51300
  C       -0.47700        3.82100       -0.94700
  C       -0.66300        4.78200        1.32000
  C       -0.57300        0.18500       -1.43900
  C       -2.07700        0.51400       -1.47400
  C       -0.42000       -1.12400       -2.24000
  C        2.36500        2.07000       -1.42300
  C        3.38000        3.24800       -1.37800
  C        2.94700        1.06700       -2.45400
  H       -0.30800       -1.01100        0.21900
  H        1.86600       -0.48100       -0.91900
  H        3.21900        1.31200        0.27600
  H        1.80000        3.41800        0.74100
  H       -0.17100        2.60200        2.22100
  H       -1.68300        1.07100        0.86400
  H        2.27400       -0.43200        2.03100
  H        4.29600       -0.39500        0.52300
  H        3.65900       -1.81900       -0.31400
  H        4.12900       -1.91300        1.39500
  H        1.36600       -2.73100        0.24100
  H        0.59800       -2.16200        1.74300
  H        2.16700       -2.94600        1.81400
  H        1.78400        1.47600        3.02100
  H        0.93100        3.79500        3.44600
  H        2.42600        4.45400        2.75400
  H        2.46200        3.50500        4.25400
  H        4.20600        2.81900        1.75000
  H        3.99200        1.10000        2.19400
  H        4.14400        2.31100        3.45200
  H        0.23200       -0.27300        2.73200
  H       -1.60900       -1.66300        1.62700
  H       -2.78400       -0.49200        2.23800
  H       -1.82800       -1.47900        3.36100
  H       -1.98600        1.69700        3.36500
  H       -0.32300        1.64200        4.01900
  H       -1.48700        0.41500        4.48800
  H       -1.87000        3.20600        0.55500
  H       -0.61800        2.95700       -1.58600
  H        0.54400        4.19200       -1.01400
  H       -1.15100        4.60600       -1.28900
  H        0.38000        5.09400        1.33800
  H       -1.01500        4.63200        2.34100
  H       -1.26200        5.56700        0.86000
  H       -0.03500        0.95700       -1.97200
  H       -2.24600        1.52300       -1.10600
  H       -2.63000       -0.20100       -0.86400
  H       -2.43900        0.46500       -2.50100
  H       -0.99100       -1.92400       -1.76800
  H        0.62500       -1.41800       -2.30000
  H       -0.79100       -0.97100       -3.25400
  H        1.43000        2.43800       -1.81800
  H        4.32700        2.90200       -0.96200
  H        3.01100        4.07900       -0.78200
  H        3.55700        3.61900       -2.38800
  H        2.18300        0.36700       -2.79000
  H        3.78000        0.52100       -2.01000
  H        3.30600        1.60600       -3.33000
