40
dodecahedrane.pdb.xyz	      0.0000000
  C        0.00000        0.00000        0.00000
  C        1.54000        0.00000        0.00000
  C        2.01600        1.46500        0.00000
  C        0.77100        2.36900        0.00000
  C       -0.47600        1.46500        0.00000
  C       -0.47600       -0.65500        1.30900
  C       -1.24600        0.40400        2.11800
  C       -1.24600        1.71400        1.30900
  C       -0.47600        2.77400        2.11900
  C        0.77000        3.17900        1.31000
  C        2.01600        2.77400        2.12000
  C        2.78600        1.71500        1.31000
  C        2.78500        0.40500        2.12000
  C        2.01600       -0.65500        1.31000
  C        0.76900       -1.05900        2.11800
  C        0.77000       -0.25000        3.42800
  C       -0.47600        0.65500        3.42800
  C        2.01500        0.65600        3.42900
  C        0.00000        2.11900        3.42800
  C        1.53900        2.11900        3.42800
  H       -0.38900       -0.53600       -0.86600
  H        1.92900       -0.53500       -0.86600
  H        2.64500        1.66900       -0.86600
  H        0.77100        3.03100       -0.86700
  H       -1.10500        1.67000       -0.86700
  H       -1.10500       -1.52100        1.10500
  H       -2.26400        0.07300        2.32100
  H       -2.26400        2.04400        1.10400
  H       -1.10500        3.63900        2.32400
  H        0.77100        4.24900        1.10500
  H        2.64500        3.64000        2.32700
  H        3.80400        2.04600        1.10600
  H        3.80300        0.07300        2.32500
  H        2.64500       -1.52200        1.10600
  H        0.76900       -2.13000        2.32200
  H        0.77100       -0.91200        4.29400
  H       -1.10600        0.45100        4.29400
  H        2.64400        0.45300        4.29500
  H       -0.38700        2.65500        4.29500
  H        1.92800        2.65400        4.29500
