16
guanine.pdb.xyz	      0.0000000
  C        0.00000        0.00000        0.00000
  C        1.39200        0.00000        0.00000
  C        2.08200        1.21500        0.00000
  N        1.33900        2.34600       -0.00100
  C       -0.01700        2.31300       -0.00300
  N       -0.70900        1.14900       -0.00300
  N       -0.39200       -1.29100       -0.02800
  C        0.73000       -2.04700       -0.04400
  N        1.84200       -1.27500       -0.02800
  O        3.28500        1.25300       -0.01000
  N       -0.72300        3.52300       -0.01900
  H        1.81100        3.24400       -0.00700
  H       -1.34700       -1.62900       -0.04800
  H        0.73800       -3.13700       -0.07700
  H       -1.64000        3.37700       -0.42700
  H       -0.21300        4.20500       -0.57000
