42
hexahelicene.pdb.xyz	      0.0000000
  C        0.00000        0.00000        0.00000
  C        1.40400        0.00000        0.00000
  C        2.10400        1.20600        0.00000
  C        1.40200        2.41300       -0.06400
  C        0.00200        2.40700       -0.06300
  C       -0.70500        1.20900        0.07100
  C       -2.10200        1.18000        0.22000
  C       -2.84700        2.29500        0.64300
  C       -4.19200        2.36000        0.26600
  C       -4.85800        1.22900       -0.19000
  C       -4.16600        0.01200       -0.27300
  C       -2.78200       -0.00100       -0.08600
  C       -2.08200       -1.20400       -0.22400
  C       -0.68500       -1.21000       -0.10700
  C       -2.31800        3.33200        1.42000
  C       -1.20600        3.17700        2.26400
  C       -0.51900        4.28900        2.72900
  C       -1.05200        5.58200        2.50300
  C       -2.28600        5.71600        1.89500
  C       -2.93600        4.58300        1.37100
  C       -4.21600        4.71700        0.81500
  C       -4.88100        3.58500        0.35000
  C       -0.78900        1.90500        2.70700
  C        0.40000        1.75900        3.42100
  C        1.15500        2.88700        3.76500
  C        0.66900        4.16500        3.44300
  H        1.94500       -0.94700       -0.01900
  H        3.19100        1.20600       -0.00200
  H        1.94200        3.35900       -0.13100
  H       -0.52300        3.35000       -0.19800
  H       -5.91800        1.26400       -0.43300
  H       -4.69800       -0.90100       -0.55500
  H       -2.61700       -2.14000       -0.40900
  H       -0.14200       -2.15000       -0.18000
  H       -0.52000        6.45700        2.88600
  H       -2.75100        6.69000        1.80600
  H       -4.71500        5.68000        0.81500
  H       -5.91700        3.65400        0.00800
  H       -1.40700        1.02100        2.52400
  H        0.73400        0.77400        3.72500
  H        2.09000        2.77700        4.32800
  H        1.22500        5.04200        3.77200
