33
ibuprofen.pdb.xyz	      0.0000000
  C        0.00000        0.00000        0.00000
  C        1.39900        0.00000        0.00000
  C        2.09800        1.21200        0.00000
  C        1.39100        2.41900        0.00400
  C       -0.00800        2.41700        0.00500
  C       -0.71200        1.20600       -0.00300
  C       -2.22400        1.13600       -0.00900
  C       -2.90000        2.50400       -0.23200
  C        3.61100        1.21000       -0.04200
  C        4.09400        0.90900       -1.47700
  C        5.63500        0.86800       -1.50300
  C        3.59000        1.99600       -2.45000
  C       -2.68600        0.57300        1.30500
  O       -3.84600        0.29700        1.46600
  O       -1.79200        0.32100        2.27700
  H       -0.53900       -0.94800       -0.00400
  H        1.94300       -0.94500       -0.00900
  H        1.93000        3.36600       -0.00600
  H       -0.53300        3.37100        0.00400
  H       -2.53600        0.46100       -0.80700
  H       -2.54600        2.94400       -1.16500
  H       -2.67600        3.17100        0.60000
  H       -3.98000        2.36500       -0.29200
  H        3.98600        0.44200        0.63500
  H        3.99000        2.18100        0.27700
  H        3.70700       -0.06100       -1.79200
  H        5.99100        0.09400       -0.82300
  H        6.03400        1.83400       -1.19200
  H        5.97800        0.64500       -2.51300
  H        3.94100        2.97500       -2.12200
  H        2.50000        1.99300       -2.47700
  H        3.97000        1.79300       -3.45100
  H       -1.68900       -0.64800        2.38300
