49
lsd.pdb.xyz	      0.0000000
  C        0.00000        0.00000        0.00000
  C        1.39700        0.00000        0.00000
  C        2.01200        1.25800        0.00000
  C        1.24600        2.43300       -0.05200
  C       -0.15500        2.40500       -0.12500
  C       -0.77300        1.15500       -0.09600
  N       -2.06500        0.76900       -0.37800
  C       -2.09200       -0.60200       -0.50300
  C       -0.81000       -1.10300       -0.24200
  C       -0.15900       -2.41500       -0.70000
  C        1.17800       -2.55500        0.07500
  C        2.05600       -1.32100       -0.01900
  H        0.91600       -2.67500        1.12600
  N        1.89900       -3.76800       -0.34600
  C        3.39400       -1.43000        0.05700
  C        4.10100       -2.76500        0.13400
  C        3.11500       -3.89900        0.47000
  H        4.56500       -2.96000       -0.83000
  C        5.12100       -2.70400        1.23700
  O        4.72000       -2.41300        2.33500
  N        6.43400       -3.00000        1.08900
  C        7.30500       -2.92500        2.27400
  C        7.75500       -4.34000        2.68600
  C        7.04700       -3.30700       -0.21500
  C        6.73600       -4.75500       -0.64600
  H        3.09400        1.35000        0.01400
  H        1.75700        3.39800       -0.07900
  H       -0.73200        3.31900       -0.24900
  H       -2.85800        1.43200       -0.65800
  H       -2.91700       -1.17700       -0.92400
  H        0.02500       -2.34900       -1.77200
  H       -0.81100       -3.26000       -0.48400
  H        4.01500       -0.53800        0.04400
  H        2.84400       -3.84000        1.52400
  H        3.58600       -4.86500        0.28600
  H        6.76800       -2.46800        3.10500
  H        8.18100       -2.31800        2.04700
  H        8.37600       -4.77200        1.90300
  H        6.87900       -4.96900        2.84400
  H        8.33200       -4.28300        3.60900
  H        8.12900       -3.19900       -0.13200
  H        6.69300       -2.60600       -0.97100
  H        5.66300       -4.89400       -0.76500
  H        7.10300       -5.45100        0.10700
  H        7.23000       -4.96200       -1.59500
  C        2.19800       -3.81300       -1.78600
  H        2.58600       -2.85400       -2.12800
  H        1.29200       -4.05300       -2.34200
  H        2.93600       -4.59100       -1.98200
