31
menthol.pdb.xyz	      0.0000000
  C        0.00000        0.00000        0.00000
  O        1.43100        0.00000        0.00000
  C       -0.50100        1.45800        0.00000
  C       -2.04200        1.48500       -0.00400
  C       -2.57600        0.74600        1.24000
  C       -2.07200       -0.71000        1.23600
  C       -0.52800       -0.72600        1.25800
  C       -0.00500       -2.18100        1.38100
  C        1.48600       -2.19700        1.78000
  C       -0.18300       -2.99700        0.08100
  C       -2.53900        2.94500        0.00300
  H       -0.36700       -0.49700       -0.89800
  H        1.76100        0.41000       -0.80600
  H       -0.12900        1.96800       -0.88900
  H       -0.12700        1.96900        0.88800
  H       -2.40900        0.98700       -0.90300
  H       -3.66600        0.75000        1.22400
  H       -2.22900        1.24900        2.14200
  H       -2.44000       -1.21100        0.34200
  H       -2.45500       -1.22200        2.11900
  H       -0.20000       -0.17500        2.13900
  H       -0.56500       -2.67300        2.17600
  H        1.63300       -1.60000        2.68000
  H        2.10000       -1.79600        0.97500
  H        1.79400       -3.22300        1.98000
  H        0.43400       -2.57800       -0.71300
  H       -1.22800       -2.99300       -0.22800
  H        0.12700       -4.02600        0.26100
  H       -2.16500        3.46200       -0.88000
  H       -2.17800        3.45100        0.89800
  H       -3.62900        2.96000       -0.00500
