32
mescaline.pdb.xyz	      0.0000000
  C        0.00000        0.00000        0.00000
  C        1.39800        0.00000        0.00000
  C        2.09800        1.21300        0.00000
  C        1.39900        2.42400       -0.00500
  C       -0.00100        2.42200        0.01300
  C       -0.70000        1.21100        0.01400
  O       -2.06200        1.20900        0.02600
  C       -2.56400        1.04700       -1.28200
  O       -0.68200       -1.18000       -0.02400
  C       -0.86700       -1.66400        1.28800
  O        2.07800       -1.18000       -0.00200
  C        2.22500       -1.65700       -1.32100
  C        2.15400        3.73500       -0.00700
  C        2.38800        4.19000        1.44700
  N        3.12400        5.46400        1.46400
  H        3.18800        1.20700        0.00000
  H       -0.54900        3.36400        0.02300
  H       -2.23100        0.09300       -1.69000
  H       -2.20800        1.85900       -1.91600
  H       -3.65300        1.06400       -1.25200
  H       -1.43200       -0.93800        1.87300
  H        0.10100       -1.83700        1.75800
  H       -1.41900       -2.60300        1.24800
  H        2.77500       -0.92900       -1.91700
  H        1.24400       -1.82500       -1.76500
  H        2.77700       -2.59700       -1.30300
  H        1.57400        4.49000       -0.53800
  H        3.11400        3.60300       -0.50700
  H        2.96600        3.43200        1.97600
  H        1.42700        4.32100        1.94400
  H        2.59000        6.17900        0.98200
  H        4.02400        5.35000        1.01200
