37
novocaine.pdb.xyz	      0.0000000
  C        0.00000        0.00000        0.00000
  C        1.39900        0.00000        0.00000
  C        2.09900        1.21100        0.00000
  C        1.39800        2.42200        0.00100
  C       -0.00100        2.42100        0.00200
  C       -0.70200        1.21100        0.00200
  N       -2.10400        1.21000        0.00300
  C        3.51100        1.21200        0.00000
  O        4.10700        2.25500       -0.00200
  O        4.17200        0.05600        0.01100
  C        5.56200        0.26900        0.11200
  C        6.27500       -1.09600        0.16200
  H       -0.54200       -0.94600        0.00000
  H        1.94200       -0.94500       -0.00100
  H        1.94000        3.36800        0.00100
  H       -0.54400        3.36700        0.00400
  H       -2.61300        0.33400        0.00200
  H        5.77600        0.83100        1.02100
  H        5.91200        0.82700       -0.75800
  H        5.94900       -1.68200       -0.69700
  H        5.98400       -1.61400        1.07600
  N        7.74100       -0.93500        0.10700
  C        8.43300       -2.20600       -0.18400
  C        8.17100       -3.27900        0.89600
  C        8.30100       -0.23900        1.28100
  C        8.68300        1.20400        0.89100
  H       -2.61300        2.08700        0.00400
  H        9.50500       -2.02100       -0.24900
  H        8.09100       -2.58700       -1.14600
  H        7.11800       -3.55900        0.89600
  H        8.44400       -2.89800        1.87900
  H        8.77000       -4.16200        0.67500
  H        9.20500       -0.74300        1.62400
  H        7.57900       -0.22300        2.09800
  H        7.80400        1.74700        0.54600
  H        9.42400        1.17600        0.09200
  H        9.10500        1.71400        1.75700
