453
olestra.pdb.xyz	      0.0000000
  C        0.00000        0.00000        0.00000
  C        1.54300        0.00000        0.00000
  C        2.02300        1.46500        0.00000
  C        1.44800        2.11500        1.27600
  C       -0.09400        1.98600        1.25800
  O       -0.44600        0.62000        1.18900
  O       -0.68200        2.63000        0.14800
  C       -0.71300        4.01100       -0.14200
  C       -1.60000        4.13500       -1.40100
  C       -1.32400        4.92400        0.94600
  O        0.57600        4.53300       -0.38900
  C        0.43600        5.93800       -0.39500
  C       -0.61700        6.26900        0.68100
  C        1.75600        6.67100       -0.08400
  O        2.22700        6.27800        1.18300
  O       -1.49900        7.26400        0.20900
  O       -1.02900        4.47500        2.25000
  O       -1.00000        3.46500       -2.48600
  C       -0.51400       -1.45700       -0.08900
  O       -1.92200       -1.49000        0.00800
  O        2.04400       -0.70700       -1.11500
  O        3.43400        1.48800       -0.02400
  O        1.87000        3.45900        1.36100
  C       -2.48200       -2.43200       -0.75300
  O       -3.31500       -2.09900       -1.55600
  C       -2.33600       -3.89500       -0.43400
  C       -3.58300       -4.66800       -0.92700
  C       -3.41600       -6.19400       -0.73600
  C       -4.68600       -6.93900       -1.21200
  C       -4.49200       -8.47200       -1.14600
  C       -5.77900       -9.19400       -1.60800
  C       -5.58000      -10.72700       -1.65100
  C       -6.86800      -11.38900       -2.09400
  C       -6.93300      -12.68300       -2.44700
  C       -5.72500      -13.59300       -2.43300
  C       -6.16400      -15.03000       -2.79400
  C       -4.95700      -15.99300       -2.79100
  C       -5.42300      -17.41900       -3.15300
  C       -4.22500      -18.39300       -3.14600
  C       -4.70000      -19.81800       -3.50500
  C        3.34400       -0.98300       -0.99900
  O        4.09800       -0.66500       -1.88200
  C        3.84400       -1.84900        0.12400
  C        5.08100       -2.68000       -0.28400
  C        5.53200       -3.50600        0.94600
  C        6.76800       -4.37800        0.66800
  C        7.10800       -5.15700        1.96900
  C        8.28300       -6.10900        1.80800
  C        8.48900       -6.84500        3.17700
  C        9.60300       -7.86700        3.10100
  C        9.83800       -8.68600        4.13900
  C        8.98900       -8.62200        5.39200
  C        9.50900       -9.60100        6.46300
  C        8.61200       -9.50900        7.71800
  C        9.09000      -10.49100        8.80800
  C        8.15500      -10.39500       10.03300
  C        8.59900      -11.38500       11.13000
  C        3.95400        2.64300        0.39100
  O        4.36400        2.72200        1.52000
  C        3.83300        3.90300       -0.42200
  C        5.11300        4.13800       -1.25400
  C        5.00100        5.47000       -2.03000
  C        6.27400        5.72100       -2.86800
  C        6.14200        7.04200       -3.65800
  C        7.42400        7.30200       -4.48000
  C        7.29200        8.60400       -5.30200
  C        8.56700        8.84200       -6.08000
  C        8.67300        9.81900       -6.99400
  C        7.51800       10.73900       -7.32100
  C        7.96200       11.76400       -8.38800
  C        6.79300       12.70400       -8.74900
  C        7.24000       13.71200       -9.82900
  C        6.06900       14.64900      -10.19200
  C        6.51000       15.65400      -11.27700
  C        1.56300        4.03400        2.52400
  O        0.99400        5.09400        2.50700
  C        2.20400        3.62400        3.82000
  C        1.08100        3.46100        4.86400
  C        1.64600        2.98500        6.21900
  C        0.49500        2.89300        7.24200
  C        0.99100        2.29300        8.57400
  C       -0.18000        2.23900        9.57700
  C        0.25200        1.52900       10.87800
  C       -0.90900        1.51600       11.84800
  C       -1.00700        0.60900       12.83200
  C        0.02300       -0.48500       13.01300
  C       -0.25500       -1.24600       14.32600
  C        0.75800       -2.39600       14.49400
  C        0.46500       -3.16800       15.79800
  C        1.44300       -4.35200       15.93700
  C        1.13800       -5.13600       17.22900
  C       -1.64000        3.71700       -3.62800
  O       -1.01200        4.07800       -4.59000
  C       -3.12100        3.48800       -3.75200
  C       -3.55300        3.54900       -5.23200
  C       -5.08300        3.36800       -5.33100
  C       -5.54500        3.44900       -6.80100
  C       -7.08000        3.29500       -6.87000
  C       -7.56300        3.37200       -8.33400
  C       -9.09900        3.23000       -8.38500
  C       -9.57900        3.30200       -9.81800
  C      -10.88600        3.23900      -10.11900
  C      -11.93400        3.09500       -9.03700
  C      -13.34000        3.03600       -9.66900
  C      -14.40300        2.88300       -8.56100
  C      -15.81500        2.83000       -9.18100
  C      -16.86700        2.66800       -8.06400
  C      -18.28300        2.61900       -8.67100
  C       -2.00100        7.97500        1.21800
  O       -3.00100        7.59500        1.76800
  C       -1.15600        9.03400        1.87200
  C       -1.53400       10.43200        1.34400
  C       -0.62500       11.49300        2.00100
  C       -0.97600       12.90200        1.47900
  C       -0.06200       13.95500        2.14300
  C       -0.43200       15.36500        1.63600
  C        0.47200       16.43200        2.28900
  C        0.07000       17.80100        1.78600
  C        0.73900       18.91000        2.13300
  C        1.94700       18.86400        3.04300
  C        2.46600       20.30100        3.26100
  C        3.70700       20.30200        4.17800
  C        4.20400       21.75000        4.36400
  C        5.44800       21.78000        5.27500
  C        5.93300       23.23600        5.44000
  C       -1.67600        5.20300        3.16000
  O       -1.39500        6.36200        3.32600
  C       -2.72200        4.56400        4.03100
  C       -3.52900        5.65700        4.76500
  C       -4.61600        5.00700        5.64800
  C       -5.41700        6.08800        6.40500
  C       -6.50500        5.42100        7.27400
  C       -7.27600        6.48500        8.08500
  C       -8.34200        5.80300        8.96700
  C       -8.99900        6.83500        9.85900
  C      -10.26500        7.25000        9.69800
  C      -11.16100        6.72900        8.59500
  C      -12.51900        7.46000        8.65000
  C      -13.45000        6.94100        7.53400
  C      -14.81000        7.66500        7.61000
  C      -15.74500        7.15000        6.49600
  C      -17.11000        7.86600        6.58300
  C        2.84200        7.28100        1.80200
  O        2.20500        8.25300        2.11800
  C        4.22000        7.09200        2.37000
  C        4.47300        8.15600        3.45900
  C        5.89300        8.01700        4.05100
  C        6.11300        9.10500        5.12500
  C        7.53600        9.01300        5.71700
  C        7.73100       10.12300        6.77200
  C        9.15300       10.06500        7.36800
  C        9.31900       11.17300        8.38500
  C       10.46100       11.33700        9.06700
  C       11.64300       10.41300        8.86800
  C       12.81900       10.88400        9.74900
  C       14.02800        9.94200        9.57200
  C       15.19400       10.41800       10.46400
  C       16.39700        9.46500       10.31200
  C       17.55500        9.93600       11.21700
  C       18.75300        8.97300       11.08100
  C       19.90700        9.43700       11.99200
  C        7.63700      -11.29400       12.33200
  C        8.06600      -12.28700       13.43200
  C       -3.50300      -20.79200       -3.49400
  C       -3.97600      -22.21500       -3.85300
  C        2.09400       -6.34100       17.34900
  C        1.78600       -7.13100       18.63700
  C        5.33600       16.58900      -11.63400
  C        5.77100       17.59300      -12.72100
  C        7.17700       23.27900        6.35000
  C        7.66100       24.73400        6.50900
  C      -19.32700        2.45000       -7.54800
  C      -20.74700        2.40600       -8.14900
  C      -18.04400        7.35000        5.47000
  C      -19.41200        8.05700        5.56000
  H       -0.36800        0.55300       -0.86400
  H        1.87400       -0.48200        0.92000
  H        1.63200        1.97800       -0.87900
  H        1.82600        1.55700        2.13100
  H       -0.50300        2.39500        2.18000
  H       -1.76600        5.18300       -1.65400
  H       -2.56200        3.67200       -1.18200
  H       -2.40400        5.01500        0.81700
  H        0.07900        6.26300       -1.37200
  H       -0.10700        6.60700        1.58000
  H        1.56800        7.74500       -0.11100
  H        2.49500        6.42500       -0.84400
  H       -0.08900       -2.04300        0.72600
  H       -0.19100       -1.88300       -1.04000
  H       -2.22600       -4.02500        0.64300
  H       -1.44800       -4.28000       -0.93600
  H       -3.73200       -4.46100       -1.98700
  H       -4.45700       -4.32700       -0.37200
  H       -3.24200       -6.41300        0.31700
  H       -2.56000       -6.53500       -1.31900
  H       -4.90200       -6.65400       -2.24100
  H       -5.52700       -6.65300       -0.57900
  H       -4.25900       -8.76700       -0.12300
  H       -3.66600       -8.75600       -1.79900
  H       -6.04700       -8.84400       -2.60500
  H       -6.58800       -8.95500       -0.91800
  H       -5.31000      -11.08900       -0.65900
  H       -4.78300      -10.96700       -2.35500
  H       -7.78100      -10.79500       -2.12500
  H       -7.89600      -13.09100       -2.75400
  H       -5.27500      -13.58800       -1.44000
  H       -4.99700      -13.24300       -3.16400
  H       -6.61800      -15.02800       -3.78500
  H       -6.89800      -15.37400       -2.06500
  H       -4.50200      -16.00000       -1.80100
  H       -4.22200      -15.65500       -3.52200
  H       -5.87500      -17.41100       -4.14500
  H       -6.16300      -17.75300       -2.42500
  H       -3.77300      -18.40200       -2.15500
  H       -3.48600      -18.06300       -3.87600
  H       -5.15000      -19.81000       -4.49800
  H       -5.44100      -20.14700       -2.77700
  H        3.04600       -2.53200        0.41600
  H        4.10200       -1.21600        0.97500
  H        5.88400       -2.00600       -0.58000
  H        4.82900       -3.33700       -1.11700
  H        4.71700       -4.15600        1.26400
  H        5.77300       -2.82000        1.75900
  H        7.60500       -3.75700        0.34500
  H        6.51100       -5.08300       -0.12300
  H        6.24400       -5.73700        2.29400
  H        7.37800       -4.45100        2.75500
  H        9.15800       -5.51700        1.53900
  H        8.05600       -6.81200        1.00700
  H        7.57200       -7.37200        3.43900
  H        8.71800       -6.12900        3.96700
  H       10.22200       -7.92600        2.20600
  H       10.64700       -9.41300        4.07400
  H        7.96000       -8.88600        5.14800
  H        9.01500       -7.61100        5.79900
  H       10.53400       -9.34100        6.72500
  H        9.48100      -10.61600        6.06800
  H        7.58600       -9.75300        7.44300
  H        8.64400       -8.49300        8.11100
  H       10.10800      -10.23900        9.10500
  H        9.07000      -11.50700        8.41500
  H        7.13600      -10.63300        9.72600
  H        8.18200       -9.38000       10.42900
  H        9.61100      -11.13900       11.45300
  H        8.58500      -12.39900       10.73000
  H        3.69700        4.73800        0.26200
  H        2.97300        3.83700       -1.08600
  H        5.24400        3.31600       -1.95600
  H        5.97300        4.18100       -0.58500
  H        4.87300        6.28900       -1.32200
  H        4.13600        5.42800       -2.69200
  H        6.41500        4.89600       -3.56700
  H        7.13700        5.78100       -2.20500
  H        5.98700        7.86700       -2.96200
  H        5.28800        6.97600       -4.33200
  H        7.59200        6.46600       -5.15800
  H        8.27300        7.38900       -3.80100
  H        7.11700        9.44300       -4.62900
  H        6.45300        8.51000       -5.99100
  H        9.43200        8.20700       -5.88700
  H        9.62000        9.94600       -7.51900
  H        7.20500       11.26600       -6.41900
  H        6.68500       10.15300       -7.70900
  H        8.28500       11.23200       -9.28300
  H        8.79300       12.35300       -8.00000
  H        6.47400       13.24400       -7.85800
  H        5.95800       12.11400       -9.12900
  H        7.55900       13.17100      -10.72000
  H        8.07300       14.30400       -9.45000
  H        5.75300       15.19400       -9.30200
  H        5.23400       14.05700      -10.56600
  H        6.82400       15.11000      -12.16800
  H        7.34600       16.24600      -10.90500
  H        2.89100        4.40500        4.14400
  H        2.75300        2.69000        3.70600
  H        0.36000        2.72900        4.50200
  H        0.57800        4.42000        4.99900
  H        2.39600        3.69200        6.57500
  H        2.10400        2.00400        6.09400
  H       -0.29300        2.25700        6.83800
  H        0.09200        3.89000        7.42000
  H        1.79200        2.91000        8.98000
  H        1.36600        1.28500        8.39700
  H       -1.01000        1.68900        9.13400
  H       -0.50300        3.25400        9.80700
  H        1.09000        2.06200       11.32600
  H        0.55500        0.50900       10.64100
  H       -1.68200        2.27900       11.75900
  H       -1.86000        0.65400       13.50800
  H        1.02000       -0.04700       13.05300
  H       -0.03700       -1.18000       12.17600
  H       -1.26400       -1.65800       14.29700
  H       -0.17000       -0.56000       15.16900
  H        1.76900       -1.99000       14.53100
  H        0.67500       -3.07600       13.64600
  H       -0.55700       -3.54600       15.77200
  H        0.58000       -2.49800       16.65000
  H        2.46600       -3.97700       15.97100
  H        1.33100       -5.01500       15.07800
  H        0.10800       -5.49300       17.20200
  H        1.26900       -4.48100       18.09000
  H       -3.65200        4.26200       -3.19700
  H       -3.37100        2.51100       -3.33900
  H       -3.05200        2.75800       -5.79100
  H       -3.27500        4.51700       -5.65000
  H       -5.57500        4.15300       -4.75700
  H       -5.35800        2.39700       -4.91900
  H       -5.07200        2.65300       -7.37600
  H       -5.25900        4.41500       -7.21900
  H       -7.54800        4.09300       -6.29400
  H       -7.36500        2.33200       -6.44700
  H       -7.10500        2.56900       -8.91000
  H       -7.27500        4.33300       -8.76100
  H       -9.55300        4.03500       -7.80800
  H       -9.38500        2.27000       -7.95500
  H       -8.85200        3.40500      -10.62300
  H      -11.19500        3.29300      -11.16200
  H      -11.87900        3.94900       -8.36200
  H      -11.75300        2.17700       -8.47700
  H      -13.39800        2.18400      -10.34700
  H      -13.52600        3.95400      -10.22700
  H      -14.34000        3.73200       -7.88000
  H      -14.21700        1.96400       -8.00700
  H      -15.88000        1.98400       -9.86500
  H      -16.00600        3.75200       -9.72900
  H      -16.79700        3.51100       -7.37700
  H      -16.67500        1.74300       -7.51900
  H      -18.35300        1.77700       -9.36100
  H      -18.47800        3.54500       -9.21200
  H       -0.10500        8.84800        1.65200
  H       -1.30800        8.99700        2.95000
  H       -2.57600       10.64200        1.58400
  H       -1.40000       10.45800        0.26200
  H        0.41600       11.27200        1.76500
  H       -0.76100       11.46500        3.08200
  H       -2.01600       13.12600        1.71600
  H       -0.83900       12.93300        0.39800
  H        0.97800       13.74100        1.89400
  H       -0.18900       13.91500        3.22400
  H       -1.47300       15.57400        1.88500
  H       -0.30900       15.40300        0.55300
  H        1.51200       16.23600        2.02700
  H        0.35600       16.39500        3.37200
  H       -0.79300       17.89200        1.12500
  H        0.40300       19.87100        1.74300
  H        2.72900       18.26100        2.58300
  H        1.66600       18.42900        4.00300
  H        1.68000       20.90100        3.71800
  H        2.73300       20.73400        2.29700
  H        4.49600       19.70100        3.72500
  H        3.44300       19.87900        5.14800
  H        3.41200       22.34900        4.81500
  H        4.46100       22.17000        3.39100
  H        6.24100       21.18200        4.82700
  H        5.19200       21.36900        6.25100
  H        5.13800       23.83400        5.88600
  H        6.18600       23.64600        4.46300
  H       -2.23400        3.91700        4.76000
  H       -3.39100        3.97000        3.41000
  H       -3.99900        6.31200        4.03200
  H       -2.85500        6.24300        5.39100
  H       -4.14300        4.34000        6.36900
  H       -5.29400        4.43100        5.01800
  H       -5.88700        6.76200        5.68900
  H       -4.74100        6.65700        7.04400
  H       -6.03400        4.71900        7.96100
  H       -7.20100        4.88100        6.63100
  H       -7.76200        7.18500        7.40500
  H       -6.57700        7.02700        8.72100
  H       -7.85800        5.05700        9.59900
  H       -9.07500        5.30500        8.33400
  H       -8.41600        7.25900       10.67600
  H      -10.66100        7.99400       10.38900
  H      -11.32400        5.66000        8.73100
  H      -10.69200        6.90900        7.62800
  H      -12.36000        8.53000        8.52000
  H      -12.98500        7.28100        9.62000
  H      -13.60300        5.86900        7.65900
  H      -12.99200        7.12900        6.56300
  H      -14.65700        8.73800        7.48800
  H      -15.26700        7.47600        8.58200
  H      -15.89100        6.07700        6.61400
  H      -15.29300        7.34800        5.52400
  H      -16.96400        8.93900        6.46600
  H      -17.56100        7.66700        7.55600
  H        4.94700        7.20000        1.56600
  H        4.29400        6.09200        2.79800
  H        3.73700        8.03400        4.25500
  H        4.36300        9.14800        3.02100
  H        6.62900        8.13700        3.25600
  H        6.00500        7.03100        4.50100
  H        5.38200        8.97600        5.92400
  H        5.97700       10.08800        4.67300
  H        8.26900        9.13700        4.92000
  H        7.67300        8.03800        6.18500
  H        7.00100        9.99300        7.57100
  H        7.57900       11.09500        6.30200
  H        9.88400       10.19200        6.57000
  H        9.30400        9.10000        7.85100
  H        8.49300       11.86100        8.56500
  H       10.53600       12.15200        9.78700
  H       11.94700       10.42900        7.82100
  H       11.36200        9.39900        9.15000
  H       12.50900       10.88000       10.79500
  H       13.10300       11.89600        9.46200
  H       14.34300        9.94600        8.52900
  H       13.74300        8.93000        9.85900
  H       14.87200       10.42800       11.50500
  H       15.48900       11.42500       10.16800
  H       16.72700        9.45900        9.27300
  H       16.09900        8.45700       10.60100
  H       17.21900        9.95100       12.25400
  H       17.86000       10.94000       10.92300
  H       19.09300        8.96000       10.04600
  H       18.44600        7.96800       11.37200
  H       19.57300        9.44800       13.03000
  H       20.22100       10.44000       11.70300
  H       20.74800        8.75200       11.89100
  H        6.62500      -11.53500       12.00600
  H        7.65300      -10.28200       12.73500
  H        9.07500      -12.04800       13.76700
  H        8.04600      -13.30300       13.03600
  H        7.37800      -12.21500       14.27400
  H       -2.76200      -20.46500       -4.22300
  H       -3.05200      -20.80200       -2.50200
  H       -4.42300      -22.21300       -4.84700
  H       -4.71400      -22.55100       -3.12400
  H       -3.12300      -22.89500       -3.84200
  H        3.12400       -5.98700       17.38000
  H        1.96400       -6.99500       16.48600
  H        0.75800       -7.49100       18.61000
  H        1.92100       -6.48400       19.50400
  H        2.46400       -7.98100       18.71300
  H        5.02300       17.13500      -10.74400
  H        4.50000       15.99600      -12.00500
  H        6.07900       17.05300      -13.61600
  H        6.60400       18.19200      -12.35400
  H        4.93500       18.24800      -12.96500
  H        7.97300       22.68000        5.90600
  H        6.92600       22.87300        7.33000
  H        6.87100       25.33600        6.95600
  H        7.91900       25.14300        5.53200
  H        8.54000       24.75700        7.15300
  H      -19.25500        3.28900       -6.85600
  H      -19.13500        1.52300       -7.00900
  H      -20.82600        1.56500       -8.83800
  H      -20.94700        3.33400       -8.68400
  H      -21.47600        2.28600       -7.34800
  H      -18.18700        6.27500        5.58300
  H      -17.59700        7.55300        4.49700
  H      -19.27600        9.13200        5.44300
  H      -19.86600        7.85300        6.52900
  H      -20.06500        7.68700        4.77000
