29
thalidomide.pdb.xyz	      0.0000000
  C        0.00000        0.00000        0.00000
  C        1.40200        0.00000        0.00000
  C        2.12800        1.19700        0.00000
  C        1.39600        2.38900       -0.01100
  C        0.00300        2.38800       -0.01000
  C       -0.72800        1.19600        0.00100
  C       -0.41500        3.78300        0.05600
  O       -1.55000        4.17700        0.15000
  N        0.69800        4.55300        0.09600
  C        1.81200        3.78500        0.05300
  O        2.94600        4.18100        0.14600
  C        0.70200        6.00500        0.31900
  C        1.02000        6.27800        1.80100
  C        1.13000        7.79900        2.00000
  C        2.18000        8.33600        1.06800
  O        2.81400        9.30700        1.39100
  N        2.42800        7.74700       -0.12400
  C        1.75700        6.64700       -0.53800
  O        2.02200        6.15800       -1.60700
  H       -0.53500       -0.94900        0.01000
  H        1.93800       -0.94900        0.01000
  H        3.21700        1.20300        0.02000
  H       -1.81700        1.20100        0.02200
  H       -0.27200        6.42300        0.06700
  H        1.96800        5.80800        2.06000
  H        0.22800        5.87300        2.43200
  H        1.40800        8.01600        3.03100
  H        0.17300        8.26800        1.77500
  H        3.14200        8.14100       -0.72700
