15
thymine.pdb.xyz	      0.0000000
  C        0.00000        0.00000        0.00000
  C        1.39900        0.00000        0.00000
  C        2.06800        1.22800        0.00000
  N        1.35600        2.37700       -0.00400
  C        0.00400        2.35000       -0.00600
  N       -0.66700        1.17600       -0.00400
  O       -0.61100        3.38500       -0.00600
  O        3.27200        1.26100        0.00600
  C        2.17300       -1.30000        0.01400
  H       -0.54900       -0.94100        0.00600
  H        1.84000        3.26800       -0.00300
  H       -1.68100        1.17800       -0.00400
  H        1.63200       -2.05500       -0.55500
  H        2.29300       -1.63800        1.04400
  H        3.15500       -1.14600       -0.43300
