63
viagra.pdb.xyz	      0.0000000
  C        0.00000        0.00000        0.00000
  C        1.39800        0.00000        0.00000
  C        2.10500        1.20700        0.00000
  C        1.41700        2.42700       -0.03700
  C        0.01700        2.42200       -0.01400
  C       -0.69200        1.21600       -0.00500
  H       -0.54500       -0.94400        0.02300
  H        1.93900       -0.94600        0.02900
  H       -0.53100        3.36400       -0.02200
  C        2.10000        3.73300       -0.05300
  N        3.45300        3.84800       -0.30200
  C        4.09100        5.06700       -0.30200
  C        3.25900        6.24600       -0.03300
  C        1.89700        6.08000        0.19000
  N        1.31000        4.84000        0.16900
  O        5.27100        5.16800       -0.54400
  H        4.02900        2.99200       -0.56900
  N        3.53800        7.57200        0.00600
  N        2.40600        8.26400        0.24800
  C        1.37300        7.36300        0.36900
  C        4.86300        8.16300       -0.23000
  H        4.79900        9.24700       -0.13300
  H        5.20000        7.90700       -1.23500
  H        5.57000        7.77400        0.50100
  C       -0.07900        7.70100        0.62400
  C       -0.22600        9.22500        0.80500
  H       -0.41500        7.19000        1.52600
  H       -0.68000        7.37200       -0.22400
  C       -1.70200        9.58400        1.07200
  H        0.11200        9.73200       -0.09900
  H        0.38300        9.55000        1.64900
  H       -1.79600       10.66300        1.19800
  H       -2.04300        9.08300        1.97800
  H       -2.31500        9.26400        0.22900
  O        3.46100        1.16400        0.12400
  C        3.85900        0.88600        1.45000
  C        3.39600        1.99800        2.41400
  H        4.94700        0.82400        1.48000
  H        3.44300       -0.06900        1.77100
  H        3.77400        1.78800        3.41400
  H        2.30700        2.03700        2.44600
  H        3.78600        2.95900        2.07700
  S       -2.44300        1.23000        0.02200
  N       -3.04500       -0.29600       -0.55500
  C       -4.49800       -0.38200       -0.34500
  C       -4.99600       -1.76500       -0.80400
  N       -4.67400       -1.95700       -2.22700
  C       -3.22200       -1.85500       -2.44200
  C       -2.72800       -0.47100       -1.98000
  H       -5.00500        0.39500       -0.91900
  H       -4.72500       -0.25400        0.71500
  H       -6.07600       -1.82200       -0.66200
  H       -4.51300       -2.53900       -0.20800
  H       -2.99800       -1.97900       -3.50200
  H       -2.70700       -2.62900       -1.87200
  H       -3.22200        0.30300       -2.56900
  H       -1.65100       -0.40700       -2.13500
  O       -2.92900        2.28200       -0.81800
  O       -2.89300        1.44200        1.36400
  C       -5.17700       -3.25700       -2.70000
  H       -4.95400       -3.37200       -3.76000
  H       -6.25700       -3.30500       -2.55700
  H       -4.70300       -4.06500       -2.14200
